Serbia_test_system_1.m
 %       Serbia test system - converted from PSAT 
 %       by convert_Serbia_test_system_from_PSAT.m 
 %       Bus Bus   Voltage Angle   ---Load---- -------Generator--------- Static Mvar 
 %       No  code  Mag.    rad      MW    Mvar     MW     Mvar    Qmin    Qmax   +Qc/-Ql  Area 
 %       1   2      3       4       5     6       7        8       9       10     11    12 
 busdata = [ ... 
         1   0  1.01968 -0.27182 -0.7576 -1.1280  0.0000  0.0000  0.0000  0.0000  0    1 ; 
         2   0  0.99675 -0.28958 -0.6456 -0.6311  0.0000  0.0000  0.0000  0.0000  0    1 ; 
         3   0  1.02290 -0.03342 -1.5100 -0.5991  0.0000  0.0000  0.0000  0.0000  0    1 ; 
         4   0  0.96438 -0.37163 -0.7780 -0.4809  0.0000  0.0000  0.0000  0.0000  0    1 ; 
         5   0  1.03062 -0.25709 -0.4005 -0.7216  0.0000  0.0000  0.0000  0.0000  0    1 ; 
         6   0  1.05127 -0.19682  0.5230 -0.3007  0.0000  0.0000  0.0000  0.0000  0    1 ; 
         7   0  1.05521 -0.21301 -0.0545 -0.5604  0.0000  0.0000  0.0000  0.0000  0    1 ; 
         8   0  0.99559 -0.32027 -0.1987 -0.5054  0.0000  0.0000  0.0000  0.0000  0    1 ; 
         9   0  1.03634 -0.19555  0.9738 -0.5286  0.0000  0.0000  0.0000  0.0000  0    1 ; 
         10   0  1.02136 -0.25945  0.0000  0.0000  0.0000  0.0000  0.0000  0.0000  0    1 ; 
         11   0  1.00978 -0.19066  0.0000  0.0000  0.0000  0.0000  0.0000  0.0000  0    1 ; 
         12   0  1.00119 -0.16821  0.0000  0.0000  0.0000  0.0000  0.0000  0.0000  0    1 ; 
         13   0  1.02270 -0.03382  0.0000  0.0000  0.0000  0.0000  0.0000  0.0000  0    1 ; 
         14   0  0.99298 -0.27312  0.0000  0.0000  0.0000  0.0000  0.0000  0.0000  0    1 ; 
         15   0  0.98302 -0.29553  0.0000  0.0000  0.0000  0.0000  0.0000  0.0000  0    1 ; 
         16   0  1.02357 -0.21804  0.0000  0.0000  0.0000  0.0000  0.0000  0.0000  0    1 ; 
         17   0  1.03124 -0.15804  0.0000  0.0000  0.0000  0.0000  0.0000  0.0000  0    1 ; 
         18   0  1.03118 -0.15827  0.0000  0.0000  0.0000  0.0000  0.0000  0.0000  0    1 ; 
         19   0  0.99932 -0.19219  0.0000  0.0000  0.0000  0.0000  0.0000  0.0000  0    1 ; 
         20   0  1.03179 -0.15581  0.0000  0.0000  0.0000  0.0000  0.0000  0.0000  0    1 ; 
         21   0  1.03344 -0.19000  0.0000  0.0000  0.0000  0.0000  0.0000  0.0000  0    1 ; 
         22   0  1.01236 -0.27554  0.0000  0.0000  0.0000  0.0000  0.0000  0.0000  0    1 ; 
         23   0  1.01941 -0.13317  0.0000  0.0000  0.0000  0.0000  0.0000  0.0000  0    1 ; 
         24   0  1.03130 -0.15758  0.0000  0.0000  0.0000  0.0000  0.0000  0.0000  0    1 ; 
         25   0  1.03130 -0.15758  0.0000  0.0000  0.0000  0.0000  0.0000  0.0000  0    1 ; 
         26   0  1.03290 -0.14099  0.0000  0.0000  0.0000  0.0000  0.0000  0.0000  0    1 ; 
         27   0  1.03314 -0.14580  0.0000  0.0000  0.0000  0.0000  0.0000  0.0000  0    1 ; 
         28   0  0.98748 -0.29620  0.0000  0.0000  0.0000  0.0000  0.0000  0.0000  0    1 ; 
         29   0  1.00487 -0.19604  0.0000  0.0000  0.0000  0.0000  0.0000  0.0000  0    1 ; 
         30   0  0.98681 -0.29188  0.0000  0.0000  0.0000  0.0000  0.0000  0.0000  0    1 ; 
         31   0  0.97983 -0.30881  0.0000  0.0000  0.0000  0.0000  0.0000  0.0000  0    1 ; 
         32   0  1.00384 -0.29144  0.0000  0.0000  0.0000  0.0000  0.0000  0.0000  0    1 ; 
         33   0  0.98255 -0.32224  0.0000  0.0000  0.0000  0.0000  0.0000  0.0000  0    1 ; 
         34   0  1.02981 -0.14913  0.0000  0.0000  0.0000  0.0000  0.0000  0.0000  0    1 ; 
         35   0  1.00085 -0.21243  0.0000  0.0000  0.0000  0.0000  0.0000  0.0000  0    1 ; 
         36   0  0.94037 -0.28033  0.0000  0.0000  0.0000  0.0000  0.0000  0.0000  0    1 ; 
         37   0  0.96878 -0.24244  0.0000  0.0000  0.0000  0.0000  0.0000  0.0000  0    1 ; 
         38   0  0.96855 -0.24269  0.0000  0.0000  0.0000  0.0000  0.0000  0.0000  0    1 ; 
         39   0  0.96952 -0.23460  0.0000  0.0000  0.0000  0.0000  0.0000  0.0000  0    1 ; 
         40   0  0.94963 -0.26088  0.0000  0.0000  0.0000  0.0000  0.0000  0.0000  0    1 ; 
         41   0  0.97057 -0.31118  0.0000  0.0000  0.0000  0.0000  0.0000  0.0000  0    1 ; 
         42   0  0.96701 -0.34328  0.1411  0.0470  0.0000  0.0000  0.0000  0.0000  0    1 ; 
         43   0  0.96708 -0.34315  0.0000  0.0000  0.0000  0.0000  0.0000  0.0000  0    1 ; 
         44   0  1.03613 -0.13764  0.0000  0.0000  0.0000  0.0000  0.0000  0.0000  0    1 ; 
         45   0  1.02985 -0.14913  0.0000  0.0000  0.0000  0.0000  0.0000  0.0000  0    1 ; 
         46   0  1.03874 -0.20482  0.0000  0.0000  0.0000  0.0000  0.0000  0.0000  0    1 ; 
         47   0  1.03584 -0.20459  0.0000  0.0000  0.0000  0.0000  0.0000  0.0000  0    1 ; 
         48   0  1.03873 -0.20491  0.0000  0.0000  0.0000  0.0000  0.0000  0.0000  0    1 ; 
         49   0  0.94502 -0.26068  0.6960  0.2890  0.0000  0.0000  0.0000  0.0000  0    1 ; 
         50   0  0.95806 -0.33741  0.0000  0.0000  0.0000  0.0000  0.0000  0.0000  0    1 ; 
         51   0  0.94318 -0.36588  0.0000  0.0000  0.0000  0.0000  0.0000  0.0000  0    1 ; 
         52   0  0.95409 -0.35811  0.0000  0.0000  0.0000  0.0000  0.0000  0.0000  0    1 ; 
         53   0  0.94682 -0.33703  0.0000  0.0000  0.0000  0.0000  0.0000  0.0000  0    1 ; 
         54   0  0.96504 -0.26483  0.0000  0.0000  0.0000  0.0000  0.0000  0.0000  0    1 ; 
         55   0  1.01224 -0.18166  0.0000  0.0000  0.0000  0.0000  0.0000  0.0000  0    1 ; 
         56   0  0.94545 -0.24619  0.0000  0.0000  0.0000  0.0000  0.0000  0.0000  0    1 ; 
         57   0  0.99320 -0.26901  0.0000  0.0000  0.0000  0.0000  0.0000  0.0000  0    1 ; 
         58   0  0.96233 -0.34891  0.0000  0.0000  0.0000  0.0000  0.0000  0.0000  0    1 ; 
         59   0  0.93782 -0.40159  0.0000  0.0000  0.0000  0.0000  0.0000  0.0000  0    1 ; 
         60   0  0.95839 -0.35473  0.4937  0.1646  0.0000  0.0000  0.0000  0.0000  0    1 ; 
         61   0  1.03286 -0.13033  0.0000  0.0000  0.0000  0.0000  0.0000  0.0000  0    1 ; 
         62   0  1.03286 -0.13033  0.0000  0.0000  0.0000  0.0000  0.0000  0.0000  0    1 ; 
         63   0  0.98364 -0.24393  0.0000  0.0000  0.0000  0.0000  0.0000  0.0000  0    1 ; 
         64   0  0.97727 -0.25550  0.0000  0.0000  0.0000  0.0000  0.0000  0.0000  0    1 ; 
         65   0  0.97014 -0.24175  0.0000  0.0000  0.0000  0.0000  0.0000  0.0000  0    1 ; 
         66   0  0.95599 -0.28775  0.0000  0.0000  0.0000  0.0000  0.0000  0.0000  0    1 ; 
         67   0  1.01224 -0.18166  0.0000  0.0000  0.0000  0.0000  0.0000  0.0000  0    1 ; 
         68   0  1.01368 -0.17985  0.0000  0.0000  0.0000  0.0000  0.0000  0.0000  0    1 ; 
         69   0  1.01369 -0.17985  0.0000  0.0000  0.0000  0.0000  0.0000  0.0000  0    1 ; 
         70   0  1.01378 -0.17979  0.0000  0.0000  0.0000  0.0000  0.0000  0.0000  0    1 ; 
         71   0  1.01385 -0.17982  0.0000  0.0000  0.0000  0.0000  0.0000  0.0000  0    1 ; 
         72   0  1.01235 -0.18167  0.0000  0.0000  0.0000  0.0000  0.0000  0.0000  0    1 ; 
         73   0  0.97275 -0.33242  0.0000  0.0000  0.0000  0.0000  0.0000  0.0000  0    1 ; 
         74   0  0.97204 -0.33321  0.0000  0.0000  0.0000  0.0000  0.0000  0.0000  0    1 ; 
         75   0  1.01100 -0.20726  0.0000  0.0000  0.0000  0.0000  0.0000  0.0000  0    1 ; 
         76   0  1.03258 -0.17291  0.0000  0.0000  0.0000  0.0000  0.0000  0.0000  0    1 ; 
         77   0  1.02930 -0.25753  0.0000  0.0000  0.0000  0.0000  0.0000  0.0000  0    1 ; 
         78   0  0.91999 -0.31643  0.0000  0.0000  0.0000  0.0000  0.0000  0.0000  0    1 ; 
         79   0  0.86748 -0.43091  0.2070  0.0680  0.0000  0.0000  0.0000  0.0000  0    1 ; 
         80   0  0.86622 -0.43836  0.4560  0.1510  0.0000  0.0000  0.0000  0.0000  0    1 ; 
         81   0  0.87021 -0.45104  0.1630  0.0530  0.0000  0.0000  0.0000  0.0000  0    1 ; 
         82   0  0.91498 -0.33330  0.2390  0.0790  0.0000  0.0000  0.0000  0.0000  0    1 ; 
         83   0  0.88438 -0.41130  0.2520  0.0830  0.0000  0.0000  0.0000  0.0000  0    1 ; 
         84   0  0.82669 -0.45109  0.3190  0.1050  0.0000  0.0000  0.0000  0.0000  0    1 ; 
         85   0  0.93100 -0.35383  0.1700  0.0550  0.0000  0.0000  0.0000  0.0000  0    1 ; 
         86   0  0.87961 -0.38722  0.1510  0.0500  0.0000  0.0000  0.0000  0.0000  0    1 ; 
         87   0  0.83964 -0.42644  0.4400  0.1460  0.0000  0.0000  0.0000  0.0000  0    1 ; 
         88   0  0.81377 -0.46281  0.1880  0.0620  0.0000  0.0000  0.0000  0.0000  0    1 ; 
         89   0  0.87722 -0.35568  0.3050  0.1000  0.0000  0.0000  0.0000  0.0000  0    1 ; 
         90   0  0.86048 -0.54641  0.1587  0.0529  0.0000  0.0000  0.0000  0.0000  0    1 ; 
         91   0  0.93216 -0.27175  0.8860  0.2920  0.0000  0.0000  0.0000  0.0000  0    1 ; 
         92   0  0.92884 -0.31016  0.4970  0.1630  0.0000  0.0000  0.0000  0.0000  0    1 ; 
         93   0  0.92109 -0.31096  0.0000  0.0000  0.0000  0.0000  0.0000  0.0000  0    1 ; 
         94   0  0.92835 -0.28325  0.0000  0.0000  0.0000  0.0000  0.0000  0.0000  0    1 ; 
         95   0  0.89270 -0.33358  0.0000  0.0000  0.0000  0.0000  0.0000  0.0000  0    1 ; 
         96   0  0.94392 -0.27667  0.0000  0.0000  0.0000  0.0000  0.0000  0.0000  0    1 ; 
         97   0  0.94323 -0.28978  0.4600  0.1520  0.0000  0.0000  0.0000  0.0000  0    1 ; 
         98   0  0.92623 -0.28089  0.5610  0.1820  0.0000  0.0000  0.0000  0.0000  0    1 ; 
         99   0  0.94392 -0.30416  0.7550  0.2480  0.0000  0.0000  0.0000  0.0000  0    1 ; 
         100   0  0.93000 -0.29767  1.2630  0.4160  0.0000  0.0000  0.0000  0.0000  0    1 ; 
         101   0  0.90963 -0.35622  0.7320  0.2400  0.0000  0.0000  0.0000  0.0000  0    1 ; 
         102   0  0.88551 -0.34465  0.8960  0.2940  0.0000  0.0000  0.0000  0.0000  0    1 ; 
         103   0  0.94124 -0.28101  0.8110  0.2380  0.0000  0.0000  0.0000  0.0000  0    1 ; 
         104   0  0.88249 -0.34894  0.6660  0.2190  0.0000  0.0000  0.0000  0.0000  0    1 ; 
         105   0  0.87551 -0.35952  0.6420  0.2110  0.0000  0.0000  0.0000  0.0000  0    1 ; 
         106   0  0.87518 -0.35932  1.1200  0.3670  0.0000  0.0000  0.0000  0.0000  0    1 ; 
         107   0  0.92204 -0.30093  0.5300  0.1740  0.0000  0.0000  0.0000  0.0000  0    1 ; 
         108   0  0.87917 -0.35339  2.7920  0.9270  0.0000  0.0000  0.0000  0.0000  0    1 ; 
         109   0  0.92715 -0.27907  0.5000  0.1630  0.0000  0.0000  0.0000  0.0000  0    1 ; 
         110   0  0.93412 -0.26877  0.0000  0.0000  0.0000  0.0000  0.0000  0.0000  0    1 ; 
         111   0  0.92171 -0.30434  0.0000  0.0000  0.0000  0.0000  0.0000  0.0000  0    1 ; 
         112   0  0.92077 -0.34383  0.0580  0.0130  0.0000  0.0000  0.0000  0.0000  0    1 ; 
         113   0  0.94258 -0.27883  0.0000  0.0000  0.0000  0.0000  0.0000  0.0000  0    1 ; 
         114   0  0.87786 -0.35580  0.3760  0.1240  0.0000  0.0000  0.0000  0.0000  0    1 ; 
         115   0  0.92047 -0.31200  0.3870  0.1120  0.0000  0.0000  0.0000  0.0000  0    1 ; 
         116   0  0.94500 -0.28807  0.2540  0.0810  0.0000  0.0000  0.0000  0.0000  0    1 ; 
         117   0  0.90543 -0.33300  0.2380  0.0790  0.0000  0.0000  0.0000  0.0000  0    1 ; 
         118   0  0.96214 -0.22118  0.3700  0.1210  0.0000  0.0000  0.0000  0.0000  0    1 ; 
         119   0  0.96072 -0.22499  0.3640  0.1200  0.0000  0.0000  0.0000  0.0000  0    1 ; 
         120   0  0.96170 -0.22257  0.0000  0.0000  0.0000  0.0000  0.0000  0.0000  0    1 ; 
         121   0  0.96327 -0.21949  0.0000  0.0000  0.0000  0.0000  0.0000  0.0000  0    1 ; 
         122   0  0.97124 -0.45036  0.0270  0.0090  0.0000  0.0000  0.0000  0.0000  0    1 ; 
         123   0  0.94755 -0.45694  0.1640  0.0540  0.0000  0.0000  0.0000  0.0000  0    1 ; 
         124   0  0.90882 -0.36546  0.1150  0.0380  0.0000  0.0000  0.0000  0.0000  0    1 ; 
         125   0  0.90297 -0.37015  0.3230  0.1060  0.0000  0.0000  0.0000  0.0000  0    1 ; 
         126   0  0.86741 -0.54427  0.2910  0.0960  0.0000  0.0000  0.0000  0.0000  0    1 ; 
         127   0  0.89711 -0.38628  0.3660  0.1200  0.0000  0.0000  0.0000  0.0000  0    1 ; 
         128   0  0.89390 -0.38830  0.7510  0.2460  0.0000  0.0000  0.0000  0.0000  0    1 ; 
         129   0  0.90356 -0.37958  0.0000  0.0000  0.0000  0.0000  0.0000  0.0000  0    1 ; 
         130   0  0.92924 -0.32732  0.0000  0.0000  0.0000  0.0000  0.0000  0.0000  0    1 ; 
         131   0  0.86920 -0.43719  0.2170  0.0720  0.0000  0.0000  0.0000  0.0000  0    1 ; 
         132   0  0.94609 -0.40667  0.2116  0.0705  0.0000  0.0000  0.0000  0.0000  0    1 ; 
         133   0  0.80082 -0.48337  0.1260  0.0420  0.0000  0.0000  0.0000  0.0000  0    1 ; 
         134   0  0.89881 -0.37896  0.1840  0.0600  0.0000  0.0000  0.0000  0.0000  0    1 ; 
         135   0  0.90708 -0.39140  0.2680  0.0880  0.0000  0.0000  0.0000  0.0000  0    1 ; 
         136   0  0.89562 -0.38568  0.0000  0.0000  0.0000  0.0000  0.0000  0.0000  0    1 ; 
         137   0  0.89888 -0.38076  0.0000  0.0000  0.0000  0.0000  0.0000  0.0000  0    1 ; 
         138   0  0.88147 -0.42502  0.0000  0.0000  0.0000  0.0000  0.0000  0.0000  0    1 ; 
         139   0  0.91677 -0.37497  0.0000  0.0000  0.0000  0.0000  0.0000  0.0000  0    1 ; 
         140   0  0.93693 -0.30948  0.1660  0.0540  0.0000  0.0000  0.0000  0.0000  0    1 ; 
         141   0  0.88078 -0.50721  0.2469  0.0823  0.0000  0.0000  0.0000  0.0000  0    1 ; 
         142   0  0.97687 -0.38239  0.0880  0.0290  0.0000  0.0000  0.0000  0.0000  0    1 ; 
         143   0  0.88521 -0.50769  0.3526  0.1176  0.0000  0.0000  0.0000  0.0000  0    1 ; 
         144   0  0.95972 -0.36055  0.1763  0.0588  0.0000  0.0000  0.0000  0.0000  0    1 ; 
         145   0  0.88164 -0.50975  0.3174  0.1058  0.0000  0.0000  0.0000  0.0000  0    1 ; 
         146   0  0.88856 -0.49967  0.2645  0.0882  0.0000  0.0000  0.0000  0.0000  0    1 ; 
         147   0  0.86772 -0.52473  0.1058  0.0353  0.0000  0.0000  0.0000  0.0000  0    1 ; 
         148   0  0.87440 -0.39438  0.0200  0.0060  0.0000  0.0000  0.0000  0.0000  0    1 ; 
         149   0  0.99979 -0.27706  0.0200  0.0070  0.0000  0.0000  0.0000  0.0000  0    1 ; 
         150   0  0.87425 -0.43177  0.0200  0.0100  0.0000  0.0000  0.0000  0.0000  0    1 ; 
         151   0  0.92959 -0.40041  0.0200  0.0100  0.0000  0.0000  0.0000  0.0000  0    1 ; 
         152   0  0.94278 -0.38269  0.0200  0.0100  0.0000  0.0000  0.0000  0.0000  0    1 ; 
         153   0  0.90111 -0.31759  0.0200  0.0100  0.0000  0.0000  0.0000  0.0000  0    1 ; 
         154   0  0.93177 -0.28388  0.0200  0.0060  0.0000  0.0000  0.0000  0.0000  0    1 ; 
         155   0  0.87874 -0.53221  0.0430  0.0180  0.0000  0.0000  0.0000  0.0000  0    1 ; 
         156   0  0.96317 -0.28513  0.0200  0.0100  0.0000  0.0000  0.0000  0.0000  0    1 ; 
         157   0  0.93656 -0.33271  0.1820  0.0630  0.0000  0.0000  0.0000  0.0000  0    1 ; 
         158   0  0.94516 -0.40706  0.1763  0.0588  0.0000  0.0000  0.0000  0.0000  0    1 ; 
         159   0  0.96199 -0.35717  0.0000  0.0000  0.0000  0.0000  0.0000  0.0000  0    1 ; 
         160   0  0.86111 -0.53950  0.1587  0.0529  0.0000  0.0000  0.0000  0.0000  0    1 ; 
         161   0  0.86118 -0.53939  0.1411  0.0470  0.0000  0.0000  0.0000  0.0000  0    1 ; 
         162   0  0.94299 -0.33591  0.4040  0.1330  0.0000  0.0000  0.0000  0.0000  0    1 ; 
         163   0  0.88993 -0.39662  0.3300  0.1090  0.0000  0.0000  0.0000  0.0000  0    1 ; 
         164   0  0.86257 -0.53706  0.3526  0.1176  0.0000  0.0000  0.0000  0.0000  0    1 ; 
         165   0  0.95687 -0.32957  0.4180  0.1390  0.0000  0.0000  0.0000  0.0000  0    1 ; 
         166   0  0.90600 -0.36931  0.1510  0.0500  0.0000  0.0000  0.0000  0.0000  0    1 ; 
         167   0  1.03960 -0.17080  0.0000  0.0000  0.0000  0.0000  0.0000  0.0000  0    1 ; 
         168   0  0.92862 -0.43955  0.0000  0.0000  0.0000  0.0000  0.0000  0.0000  0    1 ; 
         169   0  0.99248 -0.28504  0.0000  0.0000  0.0000  0.0000  0.0000  0.0000  0    1 ; 
         170   0  0.98356 -0.37461  0.0000  0.0000  0.0000  0.0000  0.0000  0.0000  0    1 ; 
         171   0  1.01105 -0.26406  0.2000  0.0690  0.0000  0.0000  0.0000  0.0000  0    1 ; 
         172   0  1.01105 -0.26406  0.0000  0.0000  0.0000  0.0000  0.0000  0.0000  0    1 ; 
         173   0  0.98978 -0.31656  0.0000  0.0000  0.0000  0.0000  0.0000  0.0000  0    1 ; 
         174   0  0.97275 -0.44777  0.0000  0.0000  0.0000  0.0000  0.0000  0.0000  0    1 ; 
         175   0  0.96897 -0.44874  0.0000  0.0000  0.0000  0.0000  0.0000  0.0000  0    1 ; 
         176   0  0.94949 -0.45400 -0.0380  0.0030  0.0000  0.0000  0.0000  0.0000  0    1 ; 
         177   0  1.01711 -0.30685  0.1800  0.0590  0.0000  0.0000  0.0000  0.0000  0    1 ; 
         178   0  0.88553 -0.38106  0.3930  0.1330  0.0000  0.0000  0.0000  0.0000  0    1 ; 
         179   0  0.93439 -0.42689  0.1587  0.0529  0.0000  0.0000  0.0000  0.0000  0    1 ; 
         180   0  0.90759 -0.36152  0.2060  0.0670  0.0000  0.0000  0.0000  0.0000  0    1 ; 
         181   0  0.91551 -0.37444  0.3280  0.1070  0.0000  0.0000  0.0000  0.0000  0    1 ; 
         182   0  0.91808 -0.37401  0.3300  0.1120  0.0000  0.0000  0.0000  0.0000  0    1 ; 
         183   0  0.93406 -0.28576  0.2710  0.0900  0.0000  0.0000  0.0000  0.0000  0    1 ; 
         184   0  0.89609 -0.39172  0.2930  0.0960  0.0000  0.0000  0.0000  0.0000  0    1 ; 
         185   0  0.79276 -0.49430  0.3330  0.1100  0.0000  0.0000  0.0000  0.0000  0    1 ; 
         186   0  0.79458 -0.49231  0.3250  0.1060  0.0000  0.0000  0.0000  0.0000  0    1 ; 
         187   0  0.91800 -0.45089  0.2292  0.0764  0.0000  0.0000  0.0000  0.0000  0    1 ; 
         188   0  0.90067 -0.31813  0.0000  0.0000  0.0000  0.0000  0.0000  0.0000  0    1 ; 
         189   0  0.92413 -0.33973  0.2400  0.0790  0.0000  0.0000  0.0000  0.0000  0    1 ; 
         190   0  0.92924 -0.32732  0.2060  0.0720  0.0000  0.0000  0.0000  0.0000  0    1 ; 
         191   0  0.94637 -0.30171  0.2060  0.0670  0.0000  0.0000  0.0000  0.0000  0    1 ; 
         192   0  0.93026 -0.34032  0.4750  0.1560  0.0000  0.0000  0.0000  0.0000  0    1 ; 
         193   0  0.93320 -0.33642  0.0000  0.0000  0.0000  0.0000  0.0000  0.0000  0    1 ; 
         194   0  0.92879 -0.34322  0.1970  0.0650  0.0000  0.0000  0.0000  0.0000  0    1 ; 
         195   0  0.93165 -0.33881  0.2740  0.0900  0.0000  0.0000  0.0000  0.0000  0    1 ; 
         196   0  0.93102 -0.33977  0.1970  0.0650  0.0000  0.0000  0.0000  0.0000  0    1 ; 
         197   0  0.89613 -0.39626  0.2170  0.0720  0.0000  0.0000  0.0000  0.0000  0    1 ; 
         198   0  0.89568 -0.39855  0.3040  0.1000  0.0000  0.0000  0.0000  0.0000  0    1 ; 
         199   0  0.90028 -0.39265  0.0000  0.0000  0.0000  0.0000  0.0000  0.0000  0    1 ; 
         200   0  0.89552 -0.39855  0.2710  0.0890  0.0000  0.0000  0.0000  0.0000  0    1 ; 
...
 ]; 

 %       Serbia test system - converted from PSAT 
 %       by convert_Serbia_test_system_from_PSAT.m 
 %       Bus  bus   R         X         1/2 B   = 1 for lines    
 %       nl   nr    p.u.      p.u.      p.u.    > 1 or < 1 tr. tap at bus nl   
 %       1   2      3          4         5      6      
 linedata = [ ... 
         1   22   0.000510   0.005880  0.074400   1.000 ; 
         2   28   0.000960   0.011240  0.138550   1.000 ; 
         3   13   0.000020   0.000280  0.003505   1.000 ; 
         4   59   0.007540   0.039740  0.028190   1.000 ; 
         5   77   0.000310   0.001710  0.001195   1.000 ; 
         6   34   0.016040   0.087400  0.061050   1.000 ; 
         7   375   0.006080   0.033160  0.023160   1.000 ; 
         8   33   0.002690   0.018710  0.161250   1.000 ; 
         9   21   0.000500   0.005790  0.073200   1.000 ; 
         10   365   0.023600   0.078210  0.004070   1.000 ; 
         11   17   0.000890   0.010370  0.131250   1.000 ; 
         11   23   0.001600   0.018560  0.234800   1.000 ; 
         11   29   0.000180   0.002130  0.026970   1.000 ; 
         12   13   0.001520   0.017660  0.223500   1.000 ; 
         12   15   0.001810   0.021040  0.266200   1.000 ; 
         13   23   0.002830   0.032840  0.415550   1.000 ; 
         14   30   0.000830   0.009590  0.121350   1.000 ; 
         14   374   0.001650   0.019180  0.242700   1.000 ; 
         15   28   0.004590   0.031870  0.261150   1.000 ; 
         15   30   0.001690   0.019560  0.247550   1.000 ; 
         15   31   0.000740   0.008530  0.107850   1.000 ; 
         16   20   0.001660   0.019240  0.243400   1.000 ; 
         16   20   0.001700   0.019690  0.249150   1.000 ; 
         16   22   0.001500   0.017440  0.220750   1.000 ; 
         17   18   0.000000   0.000100  0.000000   1.000 ; 
         17   20   0.000100   0.001140  0.014385   1.000 ; 
         17   24   0.000020   0.000190  0.002425   1.000 ; 
         17   25   0.000020   0.000190  0.002425   1.000 ; 
         18   20   0.000100   0.001130  0.014260   1.000 ; 
         18   374   0.000550   0.006390  0.080900   1.000 ; 
         19   23   0.000910   0.010550  0.133500   1.000 ; 
         19   29   0.000580   0.006770  0.085650   1.000 ; 
         20   21   0.001160   0.013510  0.170950   1.000 ; 
         20   26   0.000160   0.001900  0.024000   1.000 ; 
         20   27   0.000160   0.001900  0.024000   1.000 ; 
         22   32   0.001010   0.011720  0.148350   1.000 ; 
         28   33   0.001920   0.013330  0.114850   1.000 ; 
         34   37   0.023960   0.130600  0.091200   1.000 ; 
         34   44   0.001330   0.007270  0.005075   1.000 ; 
         34   45   0.001350   0.007360  0.005140   1.000 ; 
         34   55   0.017830   0.097160  0.067850   1.000 ; 
         34   57   0.005860   0.043170  0.031615   1.000 ; 
         34   61   0.000940   0.006940  0.005085   1.000 ; 
         34   62   0.000940   0.006940  0.005085   1.000 ; 
         34   65   0.023970   0.130600  0.091250   1.000 ; 
         34   75   0.009470   0.051590  0.036035   1.000 ; 
         34   76   0.004510   0.024590  0.017175   1.000 ; 
         35   55   0.003320   0.024470  0.017920   1.000 ; 
         35   55   0.003320   0.024430  0.017895   1.000 ; 
         35   55   0.003330   0.024490  0.017935   1.000 ; 
         35   55   0.003330   0.024490  0.017935   1.000 ; 
         36   40   0.001100   0.008120  0.005950   1.000 ; 
         36   40   0.001100   0.008120  0.005950   1.000 ; 
         37   38   0.000000   0.000100  0.000000   1.000 ; 
         37   55   0.005470   0.029820  0.020830   1.000 ; 
         38   39   0.001280   0.009410  0.006895   1.000 ; 
         38   40   0.001270   0.009350  0.006845   1.000 ; 
         39   64   0.004450   0.032800  0.024020   1.000 ; 
         40   49   0.001710   0.012580  0.009215   1.000 ; 
         41   50   0.004780   0.035210  0.025785   1.000 ; 
         41   57   0.003760   0.027650  0.020250   1.000 ; 
         42   43   0.000370   0.001840  0.001510   1.000 ; 
         42   43   0.000390   0.001930  0.001580   1.000 ; 
         43   59   0.007090   0.048360  0.036135   1.000 ; 
         43   74   0.001930   0.013200  0.009860   1.000 ; 
         43   74   0.001960   0.013370  0.009990   1.000 ; 
         46   48   0.000000   0.000100  0.000000   1.000 ; 
         47   76   0.006090   0.033200  0.023185   1.000 ; 
         47   375   0.001320   0.007210  0.005035   1.000 ; 
         48   375   0.001320   0.007210  0.005035   1.000 ; 
         49   56   0.002610   0.019220  0.014075   1.000 ; 
         50   51   0.007930   0.043200  0.030175   1.000 ; 
         50   57   0.010820   0.058970  0.041190   1.000 ; 
         51   53   0.011910   0.064910  0.045340   1.000 ; 
         51   60   0.014020   0.070090  0.057550   1.000 ; 
         52   53   0.006400   0.034910  0.024380   1.000 ; 
         54   55   0.015400   0.083930  0.058600   1.000 ; 
         54   66   0.005010   0.027320  0.019080   1.000 ; 
         54   78   0.005390   0.039670  0.029060   1.000 ; 
         55   63   0.005540   0.040760  0.029855   1.000 ; 
         55   67   0.000130   0.000720  0.000505   1.000 ; 
         55   68   0.000160   0.001150  0.000840   1.000 ; 
         55   69   0.000160   0.001150  0.000840   1.000 ; 
         55   70   0.000150   0.000810  0.000565   1.000 ; 
         55   71   0.000150   0.000810  0.000565   1.000 ; 
         55   72   0.001620   0.011910  0.008725   1.000 ; 
         55   75   0.008130   0.044320  0.030960   1.000 ; 
         56   78   0.012130   0.066130  0.046185   1.000 ; 
         57   77   0.008230   0.044860  0.031335   1.000 ; 
         57   375   0.009130   0.049740  0.034740   1.000 ; 
         58   74   0.002300   0.015690  0.011725   1.000 ; 
         58   74   0.002300   0.015820  0.011820   1.000 ; 
         60   74   0.005900   0.032250  0.009755   1.000 ; 
         65   66   0.010640   0.057990  0.040505   1.000 ; 
         73   74   0.000420   0.003090  0.002255   1.000 ; 
         73   74   0.000460   0.003150  0.002355   1.000 ; 
         79   300   0.016360   0.054220  0.002820   1.000 ; 
         80   150   0.047500   0.103200  0.004925   1.000 ; 
         80   226   0.046540   0.101100  0.004825   1.000 ; 
         81   202   0.041890   0.090980  0.004345   1.000 ; 
         81   206   0.040260   0.133400  0.082850   1.000 ; 
         82   257   0.050340   0.109300  0.005220   1.000 ; 
         82   360   0.047230   0.102600  0.004900   1.000 ; 
         83   251   0.029520   0.097830  0.005090   1.000 ; 
         83   316   0.015210   0.050400  0.002620   1.000 ; 
         84   223   0.029170   0.063360  0.003025   1.000 ; 
         84   335   0.047790   0.103800  0.004955   1.000 ; 
         84   339   0.027090   0.058830  0.002810   1.000 ; 
         85   317   0.032000   0.106100  0.005515   1.000 ; 
         85   325   0.025890   0.085810  0.004465   1.000 ; 
         86   361   0.029790   0.098730  0.005135   1.000 ; 
         87   224   0.022470   0.048810  0.002330   1.000 ; 
         87   318   0.039110   0.084930  0.004055   1.000 ; 
         88   133   0.019130   0.063400  0.003300   1.000 ; 
         88   368   0.022580   0.074840  0.003895   1.000 ; 
         89   240   0.015400   0.033440  0.001595   1.000 ; 
         89   312   0.030040   0.099560  0.005180   1.000 ; 
         90   126   0.029530   0.062240  0.002965   1.000 ; 
         90   164   0.029920   0.063050  0.003005   1.000 ; 
         91   98   0.004700   0.015580  0.000810   1.000 ; 
         91   110   0.002400   0.007950  0.000415   1.000 ; 
         91   110   0.002400   0.007950  0.000415   1.000 ; 
         91   110   0.002400   0.007950  0.000415   1.000 ; 
         91   110   0.002400   0.007950  0.000415   1.000 ; 
         92   112   0.038130   0.082820  0.003955   1.000 ; 
         92   222   0.002470   0.008190  0.000425   1.000 ; 
         93   111   0.002990   0.009900  0.000515   1.000 ; 
         93   115   0.001500   0.004970  0.000260   1.000 ; 
         93   115   0.001500   0.004970  0.000260   1.000 ; 
         93   320   0.011950   0.039610  0.002060   1.000 ; 
         94   107   0.004360   0.014460  0.000750   1.000 ; 
         94   110   0.014500   0.048050  0.002500   1.000 ; 
         94   154   0.002400   0.007960  0.000415   1.000 ; 
         94   183   0.009500   0.031490  0.001640   1.000 ; 
         94   256   0.040010   0.086890  0.004150   1.000 ; 
         94   306   0.067160   0.145900  0.006965   1.000 ; 
         95   102   0.002630   0.008720  0.000455   1.000 ; 
         95   104   0.004520   0.014970  0.000780   1.000 ; 
         95   109   0.015240   0.050500  0.002630   1.000 ; 
         95   285   0.047820   0.103900  0.004960   1.000 ; 
         96   100   0.008320   0.027580  0.001435   1.000 ; 
         96   100   0.008320   0.027580  0.001435   1.000 ; 
         96   100   0.008710   0.028860  0.001500   1.000 ; 
         96   103   0.003100   0.010270  0.000535   1.000 ; 
         96   113   0.001600   0.005300  0.000275   1.000 ; 
         96   222   0.008220   0.027240  0.001420   1.000 ; 
         96   341   0.001880   0.013840  0.000635   1.000 ; 
         96   341   0.001880   0.013850  0.000635   1.000 ; 
         97   341   0.003480   0.005290  0.084700   1.000 ; 
         99   257   0.025040   0.082990  0.004320   1.000 ; 
         99   257   0.025110   0.083200  0.004330   1.000 ; 
         100   235   0.017730   0.058750  0.003055   1.000 ; 
         101   112   0.005110   0.011110  0.000530   1.000 ; 
         101   250   0.011110   0.024140  0.001155   1.000 ; 
         102   108   0.010460   0.034660  0.001805   1.000 ; 
         103   113   0.001600   0.005300  0.000275   1.000 ; 
         104   108   0.005000   0.016560  0.000860   1.000 ; 
         105   106   0.001510   0.002690  0.049500   1.000 ; 
         105   114   0.001320   0.004940  0.049770   1.000 ; 
         106   108   0.002480   0.004430  0.081350   1.000 ; 
         107   111   0.001540   0.005090  0.000265   1.000 ; 
         108   114   0.000520   0.001980  0.019945   1.000 ; 
         109   110   0.002000   0.006630  0.000345   1.000 ; 
         112   334   0.020550   0.068090  0.003545   1.000 ; 
         116   341   0.000720   0.002690  0.027175   1.000 ; 
         117   294   0.041580   0.090320  0.004315   1.000 ; 
         118   121   0.002820   0.009360  0.000485   1.000 ; 
         118   121   0.002840   0.009410  0.000490   1.000 ; 
         119   121   0.003750   0.008150  0.000390   1.000 ; 
         119   269   0.150800   0.269200  0.012535   1.000 ; 
         120   121   0.003720   0.008070  0.000385   1.000 ; 
         120   219   0.069930   0.151900  0.007250   1.000 ; 
         121   220   0.043890   0.145500  0.007570   1.000 ; 
         121   225   0.070330   0.152800  0.007295   1.000 ; 
         121   354   0.008770   0.029070  0.001515   1.000 ; 
         121   364   0.031030   0.067390  0.003220   1.000 ; 
         122   272   0.011210   0.037130  0.001930   1.000 ; 
         123   176   0.005400   0.017900  0.000930   1.000 ; 
         124   125   0.009910   0.021520  0.001030   1.000 ; 
         124   325   0.040600   0.088180  0.004210   1.000 ; 
         125   318   0.050170   0.109000  0.005205   1.000 ; 
         126   155   0.013750   0.029870  0.001425   1.000 ; 
         126   371   0.033320   0.072370  0.003455   1.000 ; 
         127   128   0.012220   0.026540  0.001265   1.000 ; 
         127   129   0.006720   0.014580  0.000695   1.000 ; 
         128   136   0.003430   0.007440  0.000355   1.000 ; 
         128   166   0.014720   0.048800  0.002540   1.000 ; 
         129   163   0.026010   0.086190  0.004485   1.000 ; 
         129   197   0.036920   0.080180  0.003830   1.000 ; 
         130   190   0.004600   0.009990  0.000475   1.000 ; 
         131   202   0.037540   0.081540  0.003895   1.000 ; 
         131   265   0.033950   0.073740  0.003520   1.000 ; 
         132   336   0.003430   0.011400  0.000630   1.000 ; 
         133   186   0.017750   0.058830  0.003060   1.000 ; 
         134   205   0.022140   0.048090  0.002295   1.000 ; 
         134   317   0.046930   0.101900  0.004865   1.000 ; 
         135   182   0.011800   0.039110  0.002035   1.000 ; 
         135   321   0.035230   0.076510  0.003655   1.000 ; 
         136   137   0.006480   0.014070  0.000670   1.000 ; 
         137   163   0.042480   0.092260  0.004405   1.000 ; 
...
 ]; 

 